03_OpenDSS_Circuits/HollySprings_Circuit_Opendss/SwtControls_Edit.dss
New Line.105495__103374096 Bus1=103007630.1.2.3 Bus2=103135359.1.2.3 Switch=T
New SwtControl.105495__103374096 SwitchedObj=LINE.105495__103374096 SwitchedTerm=2 Action=Closed Lock=no

New Line.13L570__2701321 Bus1=26679485.1 Bus2=27137075.1 Switch=T
New SwtControl.13L570__2701321 SwitchedObj=LINE.13L570__2701321 SwitchedTerm=2 Action=Closed Lock=no
New Line.106804__2701104 Bus1=27136858.2 Bus2=25836854.2 Switch=T
New SwtControl.106804__2701104 SwitchedObj=LINE.106804__2701104 SwitchedTerm=2 Action=Closed Lock=no
New Line.106804__2701105 Bus1=25836854.2 Bus2=27136859.2 Switch=T
New SwtControl.106804__2701105 SwitchedObj=LINE.106804__2701105 SwitchedTerm=2 Action=Closed Lock=no
New Line.144378__2701336 Bus1=26776430.1 Bus2=27137090.1 Switch=T
New SwtControl.144378__2701336 SwitchedObj=LINE.144378__2701336 SwitchedTerm=2 Action=Closed Lock=no
New Line.106804__2701106 Bus1=25836854.2 Bus2=27136860.2 Switch=T
New SwtControl.106804__2701106 SwitchedObj=LINE.106804__2701106 SwitchedTerm=2 Action=Closed Lock=no
New Line.13L570__2701322 Bus1=27137076.1 Bus2=26679485.1 Switch=T
New SwtControl.13L570__2701322 SwitchedObj=LINE.13L570__2701322 SwitchedTerm=2 Action=Closed Lock=no
New Line.18GC33__105326050 Bus1=103626605.2 Bus2=103626606.2 Switch=T
New SwtControl.18GC33__105326050 SwitchedObj=LINE.18GC33__105326050 SwitchedTerm=2 Action=Closed Lock=no
New Line.106800__2701100 Bus1=25836861.2 Bus2=27136854.2 Switch=T
New SwtControl.106800__2701100 SwitchedObj=LINE.106800__2701100 SwitchedTerm=2 Action=Closed Lock=no
New Line.186Q94__104672522 Bus1=103527277.2 Bus2=103527276.2 Switch=T
New SwtControl.186Q94__104672522 SwitchedObj=LINE.186Q94__104672522 SwitchedTerm=2 Action=Closed Lock=no
New Line.186Q94__104672521 Bus1=103527276.2 Bus2=103527275.2 Switch=T
New SwtControl.186Q94__104672521 SwitchedObj=LINE.186Q94__104672521 SwitchedTerm=2 Action=Closed Lock=no
New Line.17MN18__104282587 Bus1=103383300.3 Bus2=103383301.3 Switch=T
New SwtControl.17MN18__104282587 SwitchedObj=LINE.17MN18__104282587 SwitchedTerm=2 Action=Closed Lock=no
New Line.17MN18__104282586 Bus1=103383301.3 Bus2=103383302.3 Switch=T
New SwtControl.17MN18__104282586 SwitchedObj=LINE.17MN18__104282586 SwitchedTerm=2 Action=Closed Lock=no
New Line.CBR27__2700959 Bus1=1105418.3 Bus2=27136713.3 Switch=T
New SwtControl.CBR27__2700959 SwitchedObj=LINE.CBR27__2700959 SwitchedTerm=2 Action=Closed Lock=no
New Line.CBR27__2700958 Bus1=27136712.3 Bus2=1105418.3 Switch=T
New SwtControl.CBR27__2700958 SwitchedObj=LINE.CBR27__2700958 SwitchedTerm=2 Action=Closed Lock=no
New Line.183Y96__104696222 Bus1=103537190.1 Bus2=103537122.1 Switch=T
New SwtControl.183Y96__104696222 SwitchedObj=LINE.183Y96__104696222 SwitchedTerm=2 Action=Closed Lock=no
New Line.14Q055__103041320 Bus1=103016834.2 Bus2=103016849.2 Switch=T
New SwtControl.14Q055__103041320 SwitchedObj=LINE.14Q055__103041320 SwitchedTerm=2 Action=Closed Lock=no
New Line.14Q055__103041321 Bus1=103016839.2 Bus2=103016834.2 Switch=T
New SwtControl.14Q055__103041321 SwitchedObj=LINE.14Q055__103041321 SwitchedTerm=2 Action=Closed Lock=no
New Line.G2403__2693084 Bus1=1140149.3 Bus2=26999407.3 Switch=T
New SwtControl.G2403__2693084 SwitchedObj=LINE.G2403__2693084 SwitchedTerm=2 Action=Closed Lock=no
New Line.G2402__2693085 Bus1=25747796.3 Bus2=26999408.3 Switch=T
New SwtControl.G2402__2693085 SwitchedObj=LINE.G2402__2693085 SwitchedTerm=2 Action=Closed Lock=no
New Line.8DR30__2693046 Bus1=25426802.1 Bus2=26999369.1 Switch=T
New SwtControl.8DR30__2693046 SwitchedObj=LINE.8DR30__2693046 SwitchedTerm=2 Action=Closed Lock=no
New Line.G2402__2693086 Bus1=26999409.3 Bus2=25747796.3 Switch=T
New SwtControl.G2402__2693086 SwitchedObj=LINE.G2402__2693086 SwitchedTerm=2 Action=Closed Lock=no
New Line.G2403__2693083 Bus1=26999406.3 Bus2=1140149.3 Switch=T
New SwtControl.G2403__2693083 SwitchedObj=LINE.G2403__2693083 SwitchedTerm=2 Action=Closed Lock=no
New Line.8DR30__2693045 Bus1=26999368.1 Bus2=25426802.1 Switch=T
New SwtControl.8DR30__2693045 SwitchedObj=LINE.8DR30__2693045 SwitchedTerm=2 Action=Closed Lock=no
New Line.8DR36__2693047 Bus1=25497403.1 Bus2=26999370.1 Switch=T
New SwtControl.8DR36__2693047 SwitchedObj=LINE.8DR36__2693047 SwitchedTerm=2 Action=Closed Lock=no
New Line.7NX73__2692946 Bus1=25734565.2 Bus2=103079718.2 Switch=T
New SwtControl.7NX73__2692946 SwitchedObj=LINE.7NX73__2692946 SwitchedTerm=2 Action=Closed Lock=no
New Line.7NX73__2692947 Bus1=26999270.2 Bus2=25734565.2 Switch=T
New SwtControl.7NX73__2692947 SwitchedObj=LINE.7NX73__2692947 SwitchedTerm=2 Action=Closed Lock=no
New Line.9WF49__2701060 Bus1=25876081.3 Bus2=27136814.3 Switch=T
New SwtControl.9WF49__2701060 SwitchedObj=LINE.9WF49__2701060 SwitchedTerm=2 Action=Closed Lock=no
New Line.102L21__2701174 Bus1=26755198.2 Bus2=27136928.2 Switch=T
New SwtControl.102L21__2701174 SwitchedObj=LINE.102L21__2701174 SwitchedTerm=2 Action=Closed Lock=no
New Line.102L21__2701175 Bus1=27136929.2 Bus2=26755198.2 Switch=T
New SwtControl.102L21__2701175 SwitchedObj=LINE.102L21__2701175 SwitchedTerm=2 Action=Closed Lock=no
New Line.17KH67__104218262 Bus1=103359063.1 Bus2=103359064.1 Switch=T
New SwtControl.17KH67__104218262 SwitchedObj=LINE.17KH67__104218262 SwitchedTerm=2 Action=Closed Lock=no
New Line.17KH67__104218263 Bus1=103359062.1 Bus2=103359063.1 Switch=T
New SwtControl.17KH67__104218263 SwitchedObj=LINE.17KH67__104218263 SwitchedTerm=2 Action=Closed Lock=no
New Line.102L19__2701170 Bus1=27136924.2 Bus2=26755197.2 Switch=T
New SwtControl.102L19__2701170 SwitchedObj=LINE.102L19__2701170 SwitchedTerm=2 Action=Closed Lock=no
/* cant find */
New Line.8DR36__2693048 Bus1=26999371 Bus2=25497403 Switch=T
New SwtControl.8DR36__2693048 SwitchedObj=LINE.8DR36__2693048 SwitchedTerm=2 Action=Closed Lock=no
New Line.14G317__2679982 Bus1=103036415 Bus2=27146922 Switch=T
New SwtControl.14G317__2679982 SwitchedObj=LINE.14G317__2679982 SwitchedTerm=2 Action=Closed Lock=no
New Line.U600BH__2692821 Bus1=1140076 Bus2=26999144 Switch=T
New SwtControl.U600BH__2692821 SwitchedObj=LINE.U600BH__2692821 SwitchedTerm=2 Action=Closed Lock=no
New Line.14MD35__103098783 Bus1=103048715 Bus2=T4795B23_10000005 Switch=T
New SwtControl.14MD35__103098783 SwitchedObj=LINE.14MD35__103098783 SwitchedTerm=2 Action=Closed Lock=no

/* End of missing */

New Line.14G317__2679983 Bus1=27146923.1.2.3 Bus2=103016798.1.2.3 Switch=T
New SwtControl.14G317__2679983 SwitchedObj=LINE.14G317__2679983 SwitchedTerm=2 Action=Closed Lock=no
New Line.U602BH__2692833 Bus1=26999156.1 Bus2=1139987.1 Switch=T
New SwtControl.U602BH__2692833 SwitchedObj=LINE.U602BH__2692833 SwitchedTerm=2 Action=Closed Lock=no
New Line.U600BH__2692822 Bus1=26999145.1 Bus2=1140076.1 Switch=T
New SwtControl.U600BH__2692822 SwitchedObj=LINE.U600BH__2692822 SwitchedTerm=2 Action=Closed Lock=no
New Line.14L465__2700819 Bus1=103045212.1 Bus2=26887559.1 Switch=T
New SwtControl.14L465__2700819 SwitchedObj=LINE.14L465__2700819 SwitchedTerm=2 Action=Closed Lock=no
New Line.9AM84__2693537 Bus1=25631609.3 Bus2=26999860.3 Switch=T
New SwtControl.9AM84__2693537 SwitchedObj=LINE.9AM84__2693537 SwitchedTerm=2 Action=Closed Lock=no
New Line.102L18__2701168 Bus1=25750597.2 Bus2=27136922.2 Switch=T
New SwtControl.102L18__2701168 SwitchedObj=LINE.102L18__2701168 SwitchedTerm=2 Action=Closed Lock=no
New Line.9AM84__2693536 Bus1=26999859.3 Bus2=25631609.3 Switch=T
New SwtControl.9AM84__2693536 SwitchedObj=LINE.9AM84__2693536 SwitchedTerm=2 Action=Closed Lock=no
New Line.9AM89__2693539 Bus1=25631613.1 Bus2=26999862.1 Switch=T
New SwtControl.9AM89__2693539 SwitchedObj=LINE.9AM89__2693539 SwitchedTerm=2 Action=Closed Lock=no
New Line.102L18__2701169 Bus1=27136923.2 Bus2=25750597.2 Switch=T
New SwtControl.102L18__2701169 SwitchedObj=LINE.102L18__2701169 SwitchedTerm=2 Action=Closed Lock=no
New Line.9AM85__2693534 Bus1=26999857.3 Bus2=25631608.3 Switch=T
New SwtControl.9AM85__2693534 SwitchedObj=LINE.9AM85__2693534 SwitchedTerm=2 Action=Closed Lock=no
New Line.9AM89__2693538 Bus1=26999861.1 Bus2=25631613.1 Switch=T
New SwtControl.9AM89__2693538 SwitchedObj=LINE.9AM89__2693538 SwitchedTerm=2 Action=Closed Lock=no
New Line.U602BH__2692835 Bus1=1139987.1 Bus2=26999158.1 Switch=T
New SwtControl.U602BH__2692835 SwitchedObj=LINE.U602BH__2692835 SwitchedTerm=2 Action=Closed Lock=no
New Line.U602BH__2692834 Bus1=1139987.1 Bus2=26999157.1 Switch=T
New SwtControl.U602BH__2692834 SwitchedObj=LINE.U602BH__2692834 SwitchedTerm=2 Action=Closed Lock=no
New Line.9WF47__2700944 Bus1=27136698.3 Bus2=25876080.3 Switch=T
New SwtControl.9WF47__2700944 SwitchedObj=LINE.9WF47__2700944 SwitchedTerm=2 Action=Closed Lock=no
New Line.9WF47__2700946 Bus1=25876080.3 Bus2=27136700.3 Switch=T
New SwtControl.9WF47__2700946 SwitchedObj=LINE.9WF47__2700946 SwitchedTerm=2 Action=Closed Lock=no
New Line.14L810__2700860 Bus1=103048713.2 Bus2=103048712.2 Switch=T
New SwtControl.14L810__2700860 SwitchedObj=LINE.14L810__2700860 SwitchedTerm=2 Action=Closed Lock=no
New Line.C1F95__2700899 Bus1=27136653.3 Bus2=25734580.3 Switch=T
New SwtControl.C1F95__2700899 SwitchedObj=LINE.C1F95__2700899 SwitchedTerm=2 Action=Closed Lock=no
New Line.14NJ19__103098846 Bus1=103041526.1 Bus2=103041531.1 Switch=T
New SwtControl.14NJ19__103098846 SwitchedObj=LINE.14NJ19__103098846 SwitchedTerm=2 Action=Closed Lock=no
New Line.14Q054__103041306 Bus1=103016829.2 Bus2=103016827.2 Switch=T
New SwtControl.14Q054__103041306 SwitchedObj=LINE.14Q054__103041306 SwitchedTerm=2 Action=Closed Lock=no
New Line.14Q054__103041305 Bus1=103016827.2 Bus2=103016838.2 Switch=T
New SwtControl.14Q054__103041305 SwitchedObj=LINE.14Q054__103041305 SwitchedTerm=2 Action=Closed Lock=no
New Line.14L466__2700821 Bus1=103125256.1 Bus2=26887560.1 Switch=T
New SwtControl.14L466__2700821 SwitchedObj=LINE.14L466__2700821 SwitchedTerm=2 Action=Closed Lock=no
New Line.14L466__2700822 Bus1=26887560.1 Bus2=27136576.1 Switch=T
New SwtControl.14L466__2700822 SwitchedObj=LINE.14L466__2700822 SwitchedTerm=2 Action=Closed Lock=no
New Line.186Q95__104672520 Bus1=103527273.1 Bus2=103527272.1 Switch=T
New SwtControl.186Q95__104672520 SwitchedObj=LINE.186Q95__104672520 SwitchedTerm=2 Action=Closed Lock=no
New Line.17MN19__104282580 Bus1=103383279.3 Bus2=103383280.3 Switch=T
New SwtControl.17MN19__104282580 SwitchedObj=LINE.17MN19__104282580 SwitchedTerm=2 Action=Closed Lock=no
New Line.7TX20__2701182 Bus1=27136936.3 Bus2=25360255.3 Switch=T
New SwtControl.7TX20__2701182 SwitchedObj=LINE.7TX20__2701182 SwitchedTerm=2 Action=Closed Lock=no
New Line.11E480__103404104 Bus1=26128170.2 Bus2=103125594.2 Switch=T
New SwtControl.11E480__103404104 SwitchedObj=LINE.11E480__103404104 SwitchedTerm=2 Action=Closed Lock=no
New Line.7TX20__2701181 Bus1=25360255.3 Bus2=27136935.3 Switch=T
New SwtControl.7TX20__2701181 SwitchedObj=LINE.7TX20__2701181 SwitchedTerm=2 Action=Closed Lock=no
New Line.9WA88__2700964 Bus1=25873704.1 Bus2=27136718.1 Switch=T
New SwtControl.9WA88__2700964 SwitchedObj=LINE.9WA88__2700964 SwitchedTerm=2 Action=Closed Lock=no
New Line.G250K__2692955 Bus1=26999278.3 Bus2=25734637.3 Switch=T
New SwtControl.G250K__2692955 SwitchedObj=LINE.G250K__2692955 SwitchedTerm=2 Action=Closed Lock=no


New Line.G250K__2692956 Bus1=25734637 Bus2=26999279 Switch=T
New SwtControl.G250K__2692956 SwitchedObj=LINE.G250K__2692956 SwitchedTerm=2 Action=Closed Lock=no
New Line.U588BH__2693010 Bus1=1140108 Bus2=26999333 Switch=T
New SwtControl.U588BH__2693010 SwitchedObj=LINE.U588BH__2693010 SwitchedTerm=2 Action=Closed Lock=no
New Line.9WA88__2700963 Bus1=27136717 Bus2=25873704 Switch=T
New SwtControl.9WA88__2700963 SwitchedObj=LINE.9WA88__2700963 SwitchedTerm=2 Action=Closed Lock=no
New Line.183Y12__104695296 Bus1=103536834 Bus2=103536786 Switch=T
New SwtControl.183Y12__104695296 SwitchedObj=LINE.183Y12__104695296 SwitchedTerm=2 Action=Closed Lock=no
New Line.183Y12__104695295 Bus1=103536786 Bus2=103536832 Switch=T
New SwtControl.183Y12__104695295 SwitchedObj=LINE.183Y12__104695295 SwitchedTerm=2 Action=Closed Lock=no
New Line.PME14__2692868 Bus1=26999191 Bus2=25024992 Switch=T
New SwtControl.PME14__2692868 SwitchedObj=LINE.PME14__2692868 SwitchedTerm=2 Action=Closed Lock=no
New Line.183Y95__104696227 Bus1=103537123 Bus2=103537191 Switch=T
New SwtControl.183Y95__104696227 SwitchedObj=LINE.183Y95__104696227 SwitchedTerm=2 Action=Closed Lock=no
New Line.PME14__2692869 Bus1=25024992 Bus2=26999192 Switch=T
New SwtControl.PME14__2692869 SwitchedObj=LINE.PME14__2692869 SwitchedTerm=2 Action=Closed Lock=no
New Line.5LT91__2692884 Bus1=26999207 Bus2=25024996 Switch=T
New SwtControl.5LT91__2692884 SwitchedObj=LINE.5LT91__2692884 SwitchedTerm=2 Action=Closed Lock=no
New Line.5LT91__2692885 Bus1=25024996 Bus2=26999208 Switch=T
New SwtControl.5LT91__2692885 SwitchedObj=LINE.5LT91__2692885 SwitchedTerm=2 Action=Closed Lock=no
New Line.13F675__2701378 Bus1=103121261 Bus2=103121256 Switch=T
New SwtControl.13F675__2701378 SwitchedObj=LINE.13F675__2701378 SwitchedTerm=2 Action=Closed Lock=no
New Line.15TN74__103913538 Bus1=103265086 Bus2=103265159 Switch=T
New SwtControl.15TN74__103913538 SwitchedObj=LINE.15TN74__103913538 SwitchedTerm=2 Action=Closed Lock=no
New Line.183Y95__104696228 Bus1=103537194 Bus2=103537123 Switch=T
New SwtControl.183Y95__104696228 SwitchedObj=LINE.183Y95__104696228 SwitchedTerm=2 Action=Closed Lock=no
New Line.15TN74__103913539 Bus1=103265162 Bus2=103265086 Switch=T
New SwtControl.15TN74__103913539 SwitchedObj=LINE.15TN74__103913539 SwitchedTerm=2 Action=Closed Lock=no
New Line.A543BH__2692847 Bus1=26999170 Bus2=1139897 Switch=T
New SwtControl.A543BH__2692847 SwitchedObj=LINE.A543BH__2692847 SwitchedTerm=2 Action=Closed Lock=no
New Line.84Q24__2693040 Bus1=26999363 Bus2=25734529 Switch=T
New SwtControl.84Q24__2693040 SwitchedObj=LINE.84Q24__2693040 SwitchedTerm=2 Action=Closed Lock=no
New Line.A543BH__2692846 Bus1=1139897 Bus2=26999169 Switch=T
New SwtControl.A543BH__2692846 SwitchedObj=LINE.A543BH__2692846 SwitchedTerm=2 Action=Closed Lock=no
New Line.D111K__2700919 Bus1=27136673 Bus2=25734605 Switch=T
New SwtControl.D111K__2700919 SwitchedObj=LINE.D111K__2700919 SwitchedTerm=2 Action=Closed Lock=no
New Line.U612BH__2692830 Bus1=26999153 Bus2=1140051 Switch=T
New SwtControl.U612BH__2692830 SwitchedObj=LINE.U612BH__2692830 SwitchedTerm=2 Action=Closed Lock=no
New Line.13F675__2701377 Bus1=103121242 Bus2=103121228 Switch=T
New SwtControl.13F675__2701377 SwitchedObj=LINE.13F675__2701377 SwitchedTerm=2 Action=Closed Lock=no
New Line.14LH92__2701371 Bus1=27137125 Bus2=26907384 Switch=T
New SwtControl.14LH92__2701371 SwitchedObj=LINE.14LH92__2701371 SwitchedTerm=2 Action=Closed Lock=no
New Line.17KH66__104218264 Bus1=103359051 Bus2=103359052 Switch=T
New SwtControl.17KH66__104218264 SwitchedObj=LINE.17KH66__104218264 SwitchedTerm=2 Action=Closed Lock=no
New Line.17KH66__104218265 Bus1=103359052 Bus2=103359053 Switch=T
New SwtControl.17KH66__104218265 SwitchedObj=LINE.17KH66__104218265 SwitchedTerm=2 Action=Closed Lock=no
New Line.14LH92__2701372 Bus1=26907384 Bus2=27137126 Switch=T
New SwtControl.14LH92__2701372 SwitchedObj=LINE.14LH92__2701372 SwitchedTerm=2 Action=Closed Lock=no
New Line.14Q053__103041285 Bus1=103025150 Bus2=103016818 Switch=T
New SwtControl.14Q053__103041285 SwitchedObj=LINE.14Q053__103041285 SwitchedTerm=2 Action=Closed Lock=no
New Line.13PX76__2693873 Bus1=26709810 Bus2=27000196 Switch=T
New SwtControl.13PX76__2693873 SwitchedObj=LINE.13PX76__2693873 SwitchedTerm=2 Action=Closed Lock=no
New Line.14Q053__103041284 Bus1=103016818 Bus2=103016828 Switch=T
New SwtControl.14Q053__103041284 SwitchedObj=LINE.14Q053__103041284 SwitchedTerm=2 Action=Closed Lock=no
New Line.17MN22__104282577 Bus1=103383281 Bus2=103383282 Switch=T
New SwtControl.17MN22__104282577 SwitchedObj=LINE.17MN22__104282577 SwitchedTerm=2 Action=Closed Lock=no
New Line.17MN22__104282578 Bus1=103383282 Bus2=103383283 Switch=T
New SwtControl.17MN22__104282578 SwitchedObj=LINE.17MN22__104282578 SwitchedTerm=2 Action=Closed Lock=no
New Line.13PX76__2693874 Bus1=27000197 Bus2=26709810 Switch=T
New SwtControl.13PX76__2693874 SwitchedObj=LINE.13PX76__2693874 SwitchedTerm=2 Action=Closed Lock=no
New Line.18GE31__105436272 Bus1=103631265 Bus2=103631268 Switch=T
New SwtControl.18GE31__105436272 SwitchedObj=LINE.18GE31__105436272 SwitchedTerm=2 Action=Closed Lock=no
New Line.8EK62__2693050 Bus1=25586104 Bus2=26999373 Switch=T
New SwtControl.8EK62__2693050 SwitchedObj=LINE.8EK62__2693050 SwitchedTerm=2 Action=Closed Lock=no
New Line.133Y84__2701192 Bus1=27136946 Bus2=26567440 Switch=T
New SwtControl.133Y84__2701192 SwitchedObj=LINE.133Y84__2701192 SwitchedTerm=2 Action=Closed Lock=no
New Line.18GE31__105436271 Bus1=103631269 Bus2=103631265 Switch=T
New SwtControl.18GE31__105436271 SwitchedObj=LINE.18GE31__105436271 SwitchedTerm=2 Action=Closed Lock=no
New Line.8EK62__2693051 Bus1=25586104 Bus2=26999374 Switch=T
New SwtControl.8EK62__2693051 SwitchedObj=LINE.8EK62__2693051 SwitchedTerm=2 Action=Closed Lock=no
New Line.8EK63__2693052 Bus1=25833129 Bus2=26999375 Switch=T
New SwtControl.8EK63__2693052 SwitchedObj=LINE.8EK63__2693052 SwitchedTerm=2 Action=Closed Lock=no
New Line.8EK63__2693053 Bus1=26999376 Bus2=25833129 Switch=T
New SwtControl.8EK63__2693053 SwitchedObj=LINE.8EK63__2693053 SwitchedTerm=2 Action=Closed Lock=no
New Line.133Y84__2701191 Bus1=26567440 Bus2=27136945 Switch=T
New SwtControl.133Y84__2701191 SwitchedObj=LINE.133Y84__2701191 SwitchedTerm=2 Action=Closed Lock=no
New Line.14LJ00__2701349 Bus1=26896049 Bus2=27137103 Switch=T
New SwtControl.14LJ00__2701349 SwitchedObj=LINE.14LJ00__2701349 SwitchedTerm=2 Action=Closed Lock=no
New Line.14LJ00__2701348 Bus1=27137102 Bus2=26896049 Switch=T
New SwtControl.14LJ00__2701348 SwitchedObj=LINE.14LJ00__2701348 SwitchedTerm=2 Action=Closed Lock=no
New Line.9W757__2701504 Bus1=25858575 Bus2=27137258 Switch=T
New SwtControl.9W757__2701504 SwitchedObj=LINE.9W757__2701504 SwitchedTerm=2 Action=Closed Lock=no
New Line.9W757__2701505 Bus1=27137259 Bus2=25858575 Switch=T
New SwtControl.9W757__2701505 SwitchedObj=LINE.9W757__2701505 SwitchedTerm=2 Action=Closed Lock=no
New Line.14FX05__2700739 Bus1=26859626 Bus2=27136493 Switch=T
New SwtControl.14FX05__2700739 SwitchedObj=LINE.14FX05__2700739 SwitchedTerm=2 Action=Closed Lock=no
New Line.14LJ03__2701353 Bus1=26896052 Bus2=27137107 Switch=T
New SwtControl.14LJ03__2701353 SwitchedObj=LINE.14LJ03__2701353 SwitchedTerm=2 Action=Closed Lock=no
New Line.187W45__104783620 Bus1=103571153 Bus2=103571156 Switch=T
New SwtControl.187W45__104783620 SwitchedObj=LINE.187W45__104783620 SwitchedTerm=2 Action=Closed Lock=no
New Line.14LJ03__2701352 Bus1=27137106 Bus2=26896052 Switch=T
New SwtControl.14LJ03__2701352 SwitchedObj=LINE.14LJ03__2701352 SwitchedTerm=2 Action=Closed Lock=no
New Line.8EK65__2693058 Bus1=25586117 Bus2=26999381 Switch=T
New SwtControl.8EK65__2693058 SwitchedObj=LINE.8EK65__2693058 SwitchedTerm=2 Action=Closed Lock=no
New Line.17MN16__104282583 Bus1=103383285 Bus2=103383286 Switch=T
New SwtControl.17MN16__104282583 SwitchedObj=LINE.17MN16__104282583 SwitchedTerm=2 Action=Closed Lock=no
New Line.8EK65__2693059 Bus1=26999382 Bus2=25586117 Switch=T
New SwtControl.8EK65__2693059 SwitchedObj=LINE.8EK65__2693059 SwitchedTerm=2 Action=Closed Lock=no
!New !Line.9W756__2701506 Bus1=25858574 Bus2=27137260 Switch=T
!New !SwtControl.9W756__2701506 SwitchedObj=LINE.9W756__2701506 SwitchedTerm=2 Action=Open Lock=no
New Line.17MN16__104282582 Bus1=103383286 Bus2=103383287 Switch=T
New SwtControl.17MN16__104282582 SwitchedObj=LINE.17MN16__104282582 SwitchedTerm=2 Action=Closed Lock=no
New Line.9W756__2701507 Bus1=27137261 Bus2=25858574 Switch=T
New SwtControl.9W756__2701507 SwitchedObj=LINE.9W756__2701507 SwitchedTerm=2 Action=Closed Lock=no
!New !Line.G261K__2693037 Bus1=1105100 Bus2=26999360 Switch=T
!New !SwtControl.G261K__2693037 SwitchedObj=LINE.G261K__2693037 SwitchedTerm=2 Action=Open Lock=no
!New !Line.17BT58__104029638 Bus1=103559715 Bus2=103294835 Switch=T
!New !SwtControl.17BT58__104029638 SwitchedObj=LINE.17BT58__104029638 SwitchedTerm=2 Action=Open Lock=no
New Line.8DT83__2693389 Bus1=25734569 Bus2=26999712 Switch=T
New SwtControl.8DT83__2693389 SwitchedObj=LINE.8DT83__2693389 SwitchedTerm=2 Action=Closed Lock=no
New Line.17BT58__104029639 Bus1=103294957 Bus2=103294837 Switch=T
New SwtControl.17BT58__104029639 SwitchedObj=LINE.17BT58__104029639 SwitchedTerm=2 Action=Closed Lock=no
New Line.7NX02__2692942 Bus1=25734562 Bus2=26999265 Switch=T
New SwtControl.7NX02__2692942 SwitchedObj=LINE.7NX02__2692942 SwitchedTerm=2 Action=Closed Lock=no
New Line.8DT83__2693388 Bus1=26999711 Bus2=25734569 Switch=T
New SwtControl.8DT83__2693388 SwitchedObj=LINE.8DT83__2693388 SwitchedTerm=2 Action=Closed Lock=no
New Line.7NX02__2692943 Bus1=26999266 Bus2=25734562 Switch=T
New SwtControl.7NX02__2692943 SwitchedObj=LINE.7NX02__2692943 SwitchedTerm=2 Action=Closed Lock=no
New Line.13PX89__2693860 Bus1=27000183 Bus2=26709745 Switch=T
New SwtControl.13PX89__2693860 SwitchedObj=LINE.13PX89__2693860 SwitchedTerm=2 Action=Closed Lock=no
New Line.6MG63__2678615 Bus1=26803517 Bus2=26803518 Switch=T
New SwtControl.6MG63__2678615 SwitchedObj=LINE.6MG63__2678615 SwitchedTerm=2 Action=Open Lock=no
New Line.13PX88__2693857 Bus1=27000180 Bus2=26709740 Switch=T
New SwtControl.13PX88__2693857 SwitchedObj=LINE.13PX88__2693857 SwitchedTerm=2 Action=Closed Lock=no
New Line.G261K__2693038 Bus1=26999361 Bus2=1105100 Switch=T
New SwtControl.G261K__2693038 SwitchedObj=LINE.G261K__2693038 SwitchedTerm=2 Action=Closed Lock=no
New Line.13PX94__2693852 Bus1=26709797 Bus2=27000175 Switch=T
New SwtControl.13PX94__2693852 SwitchedObj=LINE.13PX94__2693852 SwitchedTerm=2 Action=Closed Lock=no
New Line.D102K__2701015 Bus1=25734598 Bus2=27136769 Switch=T
New SwtControl.D102K__2701015 SwitchedObj=LINE.D102K__2701015 SwitchedTerm=2 Action=Closed Lock=no
New Line.13PX94__2693851 Bus1=27000174 Bus2=26709797 Switch=T
New SwtControl.13PX94__2693851 SwitchedObj=LINE.13PX94__2693851 SwitchedTerm=2 Action=Closed Lock=no
New Line.8R721__2685192 Bus1=26991510 Bus2=25490385 Switch=T
New SwtControl.8R721__2685192 SwitchedObj=LINE.8R721__2685192 SwitchedTerm=2 Action=Closed Lock=no
New Line.D102K__2701014 Bus1=27136768 Bus2=25734598 Switch=T
New SwtControl.D102K__2701014 SwitchedObj=LINE.D102K__2701014 SwitchedTerm=2 Action=Closed Lock=no
New Line.9W754__2701508 Bus1=103014538 Bus2=25858578 Switch=T
New SwtControl.9W754__2701508 SwitchedObj=LINE.9W754__2701508 SwitchedTerm=2 Action=Closed Lock=no
New Line.10EH22__2701092 Bus1=27136846 Bus2=25917435 Switch=T
New SwtControl.10EH22__2701092 SwitchedObj=LINE.10EH22__2701092 SwitchedTerm=2 Action=Closed Lock=no
New Line.13PX88__2693858 Bus1=26709740 Bus2=27000181 Switch=T
New SwtControl.13PX88__2693858 SwitchedObj=LINE.13PX88__2693858 SwitchedTerm=2 Action=Closed Lock=no
New Line.11E483__2701113 Bus1=26128186 Bus2=27136867 Switch=T
New SwtControl.11E483__2701113 SwitchedObj=LINE.11E483__2701113 SwitchedTerm=2 Action=Closed Lock=no
New Line.8DT86__2692948 Bus1=25734566 Bus2=26999271 Switch=T
New SwtControl.8DT86__2692948 SwitchedObj=LINE.8DT86__2692948 SwitchedTerm=2 Action=Closed Lock=no
New Line.8DT86__2692949 Bus1=25734566 Bus2=26999272 Switch=T
New SwtControl.8DT86__2692949 SwitchedObj=LINE.8DT86__2692949 SwitchedTerm=2 Action=Closed Lock=no
New Line.12129__2693815 Bus1=27000138 Bus2=1105038 Switch=T
New SwtControl.12129__2693815 SwitchedObj=LINE.12129__2693815 SwitchedTerm=2 Action=Closed Lock=no
New Line.126697__2693607 Bus1=26356916 Bus2=26999930 Switch=T
New SwtControl.126697__2693607 SwitchedObj=LINE.126697__2693607 SwitchedTerm=2 Action=Closed Lock=no
New Line.18FA93__105436421 Bus1=103631345 Bus2=103631336 Switch=T
New SwtControl.18FA93__105436421 SwitchedObj=LINE.18FA93__105436421 SwitchedTerm=2 Action=Closed Lock=no
New Line.D106K__2700910 Bus1=25734600 Bus2=27136664 Switch=T
New SwtControl.D106K__2700910 SwitchedObj=LINE.D106K__2700910 SwitchedTerm=2 Action=Closed Lock=no
New Line.11E483__2701114 Bus1=27136868 Bus2=26128186 Switch=T
New SwtControl.11E483__2701114 SwitchedObj=LINE.11E483__2701114 SwitchedTerm=2 Action=Closed Lock=no
New Line.126697__2693608 Bus1=26999931 Bus2=26356916 Switch=T
New SwtControl.126697__2693608 SwitchedObj=LINE.126697__2693608 SwitchedTerm=2 Action=Closed Lock=no
New Line.8DT84__2693063 Bus1=26999386 Bus2=25734568 Switch=T
New SwtControl.8DT84__2693063 SwitchedObj=LINE.8DT84__2693063 SwitchedTerm=2 Action=Closed Lock=no
New Line.8DT84__2693062 Bus1=25734568 Bus2=26999385 Switch=T
New SwtControl.8DT84__2693062 SwitchedObj=LINE.8DT84__2693062 SwitchedTerm=2 Action=Closed Lock=no
New Line.11E480__2701123 Bus1=27136877 Bus2=26128170 Switch=T
New SwtControl.11E480__2701123 SwitchedObj=LINE.11E480__2701123 SwitchedTerm=2 Action=Closed Lock=no
New Line.U609BH__2692827 Bus1=26999150 Bus2=1139872 Switch=T
New SwtControl.U609BH__2692827 SwitchedObj=LINE.U609BH__2692827 SwitchedTerm=2 Action=Closed Lock=no
New Line.18NP34__106231437 Bus1=103666861 Bus2=103666848 Switch=T
New SwtControl.18NP34__106231437 SwitchedObj=LINE.18NP34__106231437 SwitchedTerm=2 Action=Closed Lock=no
New Line.G253K__2700930 Bus1=27136684 Bus2=25734640 Switch=T
New SwtControl.G253K__2700930 SwitchedObj=LINE.G253K__2700930 SwitchedTerm=2 Action=Closed Lock=no
New Line.G253K__2700931 Bus1=25734640 Bus2=27136685 Switch=T
New SwtControl.G253K__2700931 SwitchedObj=LINE.G253K__2700931 SwitchedTerm=2 Action=Closed Lock=no
New Line.13PX93__2693849 Bus1=27000172 Bus2=26709791 Switch=T
New SwtControl.13PX93__2693849 SwitchedObj=LINE.13PX93__2693849 SwitchedTerm=2 Action=Closed Lock=no
New Line.17KH65__104218260 Bus1=103359056 Bus2=103359057 Switch=T
New SwtControl.17KH65__104218260 SwitchedObj=LINE.17KH65__104218260 SwitchedTerm=2 Action=Closed Lock=no
New Line.18NP34__106231438 Bus1=103666848 Bus2=103666859 Switch=T
New SwtControl.18NP34__106231438 SwitchedObj=LINE.18NP34__106231438 SwitchedTerm=2 Action=Open Lock=no
New Line.U609BH__2692828 Bus1=1139872 Bus2=26999151 Switch=T
New SwtControl.U609BH__2692828 SwitchedObj=LINE.U609BH__2692828 SwitchedTerm=2 Action=Closed Lock=no
New Line.17KH65__104218261 Bus1=103359055 Bus2=103359056 Switch=T
New SwtControl.17KH65__104218261 SwitchedObj=LINE.17KH65__104218261 SwitchedTerm=2 Action=Closed Lock=no
New Line.12AK60__2701055 Bus1=27136809 Bus2=26387839 Switch=T
New SwtControl.12AK60__2701055 SwitchedObj=LINE.12AK60__2701055 SwitchedTerm=2 Action=Closed Lock=no
New Line.12AK60__2701054 Bus1=26387839 Bus2=27136808 Switch=T
New SwtControl.12AK60__2701054 SwitchedObj=LINE.12AK60__2701054 SwitchedTerm=2 Action=Closed Lock=no
New Line.14FX08__2700746 Bus1=103322576 Bus2=26859622 Switch=T
New SwtControl.14FX08__2700746 SwitchedObj=LINE.14FX08__2700746 SwitchedTerm=2 Action=Closed Lock=no
New Line.9WA93__2701524 Bus1=27137278 Bus2=25873713 Switch=T
New SwtControl.9WA93__2701524 SwitchedObj=LINE.9WA93__2701524 SwitchedTerm=2 Action=Closed Lock=no
New Line.9WA93__2701523 Bus1=25873713 Bus2=27137277 Switch=T
New SwtControl.9WA93__2701523 SwitchedObj=LINE.9WA93__2701523 SwitchedTerm=2 Action=Closed Lock=no
New Line.D860K__2693066 Bus1=1105214 Bus2=26999389 Switch=T
New SwtControl.D860K__2693066 SwitchedObj=LINE.D860K__2693066 SwitchedTerm=2 Action=Closed Lock=no
New Line.14L346__2700816 Bus1=27136570 Bus2=26887528 Switch=T
New SwtControl.14L346__2700816 SwitchedObj=LINE.14L346__2700816 SwitchedTerm=2 Action=Closed Lock=no
New Line.D860K__2693067 Bus1=26999390 Bus2=1105214 Switch=T
New SwtControl.D860K__2693067 SwitchedObj=LINE.D860K__2693067 SwitchedTerm=2 Action=Closed Lock=no
New Line.14L342__2700818 Bus1=26887523 Bus2=27136572 Switch=T
New SwtControl.14L342__2700818 SwitchedObj=LINE.14L342__2700818 SwitchedTerm=2 Action=Closed Lock=no
New Line.D862K__2692910 Bus1=1105379 Bus2=26999233 Switch=T
New SwtControl.D862K__2692910 SwitchedObj=LINE.D862K__2692910 SwitchedTerm=2 Action=Closed Lock=no
New Line.17DH83__104079498 Bus1=103307204 Bus2=103307205 Switch=T
New SwtControl.17DH83__104079498 SwitchedObj=LINE.17DH83__104079498 SwitchedTerm=2 Action=Closed Lock=no
New Line.183Y93__104696246 Bus1=103537127 Bus2=103537208 Switch=T
New SwtControl.183Y93__104696246 SwitchedObj=LINE.183Y93__104696246 SwitchedTerm=2 Action=Closed Lock=no
New Line.14L342__2700817 Bus1=27136571 Bus2=26887523 Switch=T
New SwtControl.14L342__2700817 SwitchedObj=LINE.14L342__2700817 SwitchedTerm=2 Action=Closed Lock=no
New Line.183Y93__104696245 Bus1=103543459 Bus2=103537127 Switch=T
New SwtControl.183Y93__104696245 SwitchedObj=LINE.183Y93__104696245 SwitchedTerm=2 Action=Closed Lock=no
New Line.105P72__2680188 Bus1=26835313 Bus2=25856674 Switch=T
New SwtControl.105P72__2680188 SwitchedObj=LINE.105P72__2680188 SwitchedTerm=2 Action=Closed Lock=no
New Line.G251K__2692957 Bus1=25734638 Bus2=26999280 Switch=T
New SwtControl.G251K__2692957 SwitchedObj=LINE.G251K__2692957 SwitchedTerm=2 Action=Closed Lock=no
New Line.8DW53__103222931 Bus1=103079711 Bus2=103079706 Switch=T
New SwtControl.8DW53__103222931 SwitchedObj=LINE.8DW53__103222931 SwitchedTerm=2 Action=Closed Lock=no
New Line.G251K__2692958 Bus1=26999281 Bus2=25734638 Switch=T
New SwtControl.G251K__2692958 SwitchedObj=LINE.G251K__2692958 SwitchedTerm=2 Action=Closed Lock=no
New Line.132351__2693142 Bus1=26555727 Bus2=26999465 Switch=T
New SwtControl.132351__2693142 SwitchedObj=LINE.132351__2693142 SwitchedTerm=2 Action=Closed Lock=no
New Line.7NW66__2692937 Bus1=26999260 Bus2=25734559 Switch=T
New SwtControl.7NW66__2692937 SwitchedObj=LINE.7NW66__2692937 SwitchedTerm=2 Action=Closed Lock=no
New Line.7NW66__2692936 Bus1=25734559 Bus2=26999259 Switch=T
New SwtControl.7NW66__2692936 SwitchedObj=LINE.7NW66__2692936 SwitchedTerm=2 Action=Closed Lock=no
New Line.132351__2693141 Bus1=26999464 Bus2=26555727 Switch=T
New SwtControl.132351__2693141 SwitchedObj=LINE.132351__2693141 SwitchedTerm=2 Action=Closed Lock=no
New Line.13PX82__2693791 Bus1=26709841 Bus2=27000114 Switch=T
New SwtControl.13PX82__2693791 SwitchedObj=LINE.13PX82__2693791 SwitchedTerm=2 Action=Closed Lock=no
New Line.132360__2693158 Bus1=26999481 Bus2=26555789 Switch=T
New SwtControl.132360__2693158 SwitchedObj=LINE.132360__2693158 SwitchedTerm=2 Action=Closed Lock=no
New Line.13PX82__2693790 Bus1=27000113 Bus2=26709841 Switch=T
New SwtControl.13PX82__2693790 SwitchedObj=LINE.13PX82__2693790 SwitchedTerm=2 Action=Closed Lock=no
New Line.D114K__2701029 Bus1=25734586 Bus2=27136783 Switch=T
New SwtControl.D114K__2701029 SwitchedObj=LINE.D114K__2701029 SwitchedTerm=2 Action=Closed Lock=no
New Line.132360__2693159 Bus1=26555789 Bus2=26999482 Switch=T
New SwtControl.132360__2693159 SwitchedObj=LINE.132360__2693159 SwitchedTerm=2 Action=Closed Lock=no
New Line.D114K__2701028 Bus1=27136782 Bus2=25734586 Switch=T
New SwtControl.D114K__2701028 SwitchedObj=LINE.D114K__2701028 SwitchedTerm=2 Action=Closed Lock=no
New Line.14L472__103913766 Bus1=103282197 Bus2=26887569 Switch=T
New SwtControl.14L472__103913766 SwitchedObj=LINE.14L472__103913766 SwitchedTerm=2 Action=Closed Lock=no
New Line.107H65__2693080 Bus1=25894028 Bus2=26999403 Switch=T
New SwtControl.107H65__2693080 SwitchedObj=LINE.107H65__2693080 SwitchedTerm=2 Action=Closed Lock=no
New Line.13L576__2701331 Bus1=27137085 Bus2=26679492 Switch=T
New SwtControl.13L576__2701331 SwitchedObj=LINE.13L576__2701331 SwitchedTerm=2 Action=Closed Lock=no
New Line.13L576__2701332 Bus1=26679492 Bus2=27137086 Switch=T
New SwtControl.13L576__2701332 SwitchedObj=LINE.13L576__2701332 SwitchedTerm=2 Action=Closed Lock=no
New Line.7X078__2701190 Bus1=25360254 Bus2=27136944 Switch=T
New SwtControl.7X078__2701190 SwitchedObj=LINE.7X078__2701190 SwitchedTerm=2 Action=Closed Lock=no
New Line.G9Z21__103450799 Bus1=25859631 Bus2=103136725 Switch=T
New SwtControl.G9Z21__103450799 SwitchedObj=LINE.G9Z21__103450799 SwitchedTerm=2 Action=Closed Lock=no
New Line.13L571__2701324 Bus1=27137078 Bus2=26679486 Switch=T
New SwtControl.13L571__2701324 SwitchedObj=LINE.13L571__2701324 SwitchedTerm=2 Action=Closed Lock=no
New Line.106805__2701101 Bus1=27136855 Bus2=25836859 Switch=T
New SwtControl.106805__2701101 SwitchedObj=LINE.106805__2701101 SwitchedTerm=2 Action=Closed Lock=no
New Line.106805__2701102 Bus1=25836859 Bus2=27136856 Switch=T
New SwtControl.106805__2701102 SwitchedObj=LINE.106805__2701102 SwitchedTerm=2 Action=Closed Lock=no
New Line.144380__2701343 Bus1=27137097 Bus2=26776418 Switch=T
New SwtControl.144380__2701343 SwitchedObj=LINE.144380__2701343 SwitchedTerm=2 Action=Closed Lock=no
New Line.13L571__2701323 Bus1=26679486 Bus2=27137077 Switch=T
New SwtControl.13L571__2701323 SwitchedObj=LINE.13L571__2701323 SwitchedTerm=2 Action=Closed Lock=no
New Line.144380__2701344 Bus1=26776418 Bus2=27137098 Switch=T
New SwtControl.144380__2701344 SwitchedObj=LINE.144380__2701344 SwitchedTerm=2 Action=Closed Lock=no
New Line.144381__2701339 Bus1=27137093 Bus2=26776411 Switch=T
New SwtControl.144381__2701339 SwitchedObj=LINE.144381__2701339 SwitchedTerm=2 Action=Closed Lock=no
New Line.116C33__2700966 Bus1=27136720 Bus2=25873717 Switch=T
New SwtControl.116C33__2700966 SwitchedObj=LINE.116C33__2700966 SwitchedTerm=2 Action=Closed Lock=no
New Line.116C33__2700967 Bus1=25873717 Bus2=27136721 Switch=T
New SwtControl.116C33__2700967 SwitchedObj=LINE.116C33__2700967 SwitchedTerm=2 Action=Closed Lock=no
New Line.5R684__2701009 Bus1=27136763 Bus2=26281698 Switch=T
New SwtControl.5R684__2701009 SwitchedObj=LINE.5R684__2701009 SwitchedTerm=2 Action=Closed Lock=no
New Line.106801__2701103 Bus1=27136857 Bus2=25836871 Switch=T
New SwtControl.106801__2701103 SwitchedObj=LINE.106801__2701103 SwitchedTerm=2 Action=Closed Lock=no
New Line.12133__2700960 Bus1=27136714 Bus2=1105420 Switch=T
New SwtControl.12133__2700960 SwitchedObj=LINE.12133__2700960 SwitchedTerm=2 Action=Closed Lock=no
New Line.17MN20__104282573 Bus1=103383290 Bus2=103383291 Switch=T
New SwtControl.17MN20__104282573 SwitchedObj=LINE.17MN20__104282573 SwitchedTerm=2 Action=Closed Lock=no
New Line.7WL55__2701149 Bus1=25360338 Bus2=27136903 Switch=T
New SwtControl.7WL55__2701149 SwitchedObj=LINE.7WL55__2701149 SwitchedTerm=2 Action=Closed Lock=no
New Line.NV06__2692870 Bus1=26999193 Bus2=25024993 Switch=T
New SwtControl.NV06__2692870 SwitchedObj=LINE.NV06__2692870 SwitchedTerm=2 Action=Closed Lock=no
New Line.NV06__2692871 Bus1=25024993 Bus2=26999194 Switch=T
New SwtControl.NV06__2692871 SwitchedObj=LINE.NV06__2692871 SwitchedTerm=2 Action=Closed Lock=no
New Line.13L569__2701320 Bus1=27137074 Bus2=26679484 Switch=T
New SwtControl.13L569__2701320 SwitchedObj=LINE.13L569__2701320 SwitchedTerm=2 Action=Closed Lock=no
New Line.17MN20__104282574 Bus1=103383289 Bus2=103383290 Switch=T
New SwtControl.17MN20__104282574 SwitchedObj=LINE.17MN20__104282574 SwitchedTerm=2 Action=Closed Lock=no
New Line.183Y07__104695264 Bus1=103536804 Bus2=103536773 Switch=T
New SwtControl.183Y07__104695264 SwitchedObj=LINE.183Y07__104695264 SwitchedTerm=2 Action=Closed Lock=no
New Line.183Y07__104695265 Bus1=103536773 Bus2=103536805 Switch=T
New SwtControl.183Y07__104695265 SwitchedObj=LINE.183Y07__104695265 SwitchedTerm=2 Action=Closed Lock=no
New Line.18PH82__104696193 Bus1=103672968 Bus2=103537114 Switch=T
New SwtControl.18PH82__104696193 SwitchedObj=LINE.18PH82__104696193 SwitchedTerm=2 Action=Closed Lock=no
New Line.102L15__2701164 Bus1=25750593 Bus2=27136918 Switch=T
New SwtControl.102L15__2701164 SwitchedObj=LINE.102L15__2701164 SwitchedTerm=2 Action=Closed Lock=no
New Line.12132__2700884 Bus1=1105334 Bus2=27136638 Switch=T
New SwtControl.12132__2700884 SwitchedObj=LINE.12132__2700884 SwitchedTerm=2 Action=Closed Lock=no
New Line.102L15__2701165 Bus1=27136919 Bus2=25750593 Switch=T
New SwtControl.102L15__2701165 SwitchedObj=LINE.102L15__2701165 SwitchedTerm=2 Action=Closed Lock=no
New Line.8DT90__2693024 Bus1=25734535 Bus2=26999347 Switch=T
New SwtControl.8DT90__2693024 SwitchedObj=LINE.8DT90__2693024 SwitchedTerm=2 Action=Closed Lock=no
New Line.A538BH__2692842 Bus1=1139960 Bus2=26999165 Switch=T
New SwtControl.A538BH__2692842 SwitchedObj=LINE.A538BH__2692842 SwitchedTerm=2 Action=Closed Lock=no
New Line.A538BH__2692843 Bus1=26999166 Bus2=1139960 Switch=T
New SwtControl.A538BH__2692843 SwitchedObj=LINE.A538BH__2692843 SwitchedTerm=2 Action=Closed Lock=no
New Line.12132__2700883 Bus1=27136637 Bus2=1105334 Switch=T
New SwtControl.12132__2700883 SwitchedObj=LINE.12132__2700883 SwitchedTerm=2 Action=Closed Lock=no
New Line.9AM82__2693549 Bus1=25631621 Bus2=26999872 Switch=T
New SwtControl.9AM82__2693549 SwitchedObj=LINE.9AM82__2693549 SwitchedTerm=2 Action=Closed Lock=no
New Line.18PH82__104696194 Bus1=103537114 Bus2=103537160 Switch=T
New SwtControl.18PH82__104696194 SwitchedObj=LINE.18PH82__104696194 SwitchedTerm=2 Action=Closed Lock=no
New Line.9AM82__2693548 Bus1=26999871 Bus2=25631621 Switch=T
New SwtControl.9AM82__2693548 SwitchedObj=LINE.9AM82__2693548 SwitchedTerm=2 Action=Closed Lock=no
New Line.18GC38__105326046 Bus1=103626603 Bus2=103626602 Switch=T
New SwtControl.18GC38__105326046 SwitchedObj=LINE.18GC38__105326046 SwitchedTerm=2 Action=Closed Lock=no
New Line.8DT90__2693023 Bus1=26999346 Bus2=25734535 Switch=T
New SwtControl.8DT90__2693023 SwitchedObj=LINE.8DT90__2693023 SwitchedTerm=2 Action=Closed Lock=no
New Line.18GC38__105326045 Bus1=103626602 Bus2=103626601 Switch=T
New SwtControl.18GC38__105326045 SwitchedObj=LINE.18GC38__105326045 SwitchedTerm=2 Action=Closed Lock=no
New Line.9AM83__2693543 Bus1=25631615 Bus2=26999866 Switch=T
New SwtControl.9AM83__2693543 SwitchedObj=LINE.9AM83__2693543 SwitchedTerm=2 Action=Closed Lock=no
New Line.A536BH__2692838 Bus1=26999161 Bus2=1139948 Switch=T
New SwtControl.A536BH__2692838 SwitchedObj=LINE.A536BH__2692838 SwitchedTerm=2 Action=Closed Lock=no
New Line.9AM83__2693542 Bus1=26999865 Bus2=25631615 Switch=T
New SwtControl.9AM83__2693542 SwitchedObj=LINE.9AM83__2693542 SwitchedTerm=2 Action=Closed Lock=no
New Line.A536BH__2692839 Bus1=1139948 Bus2=26999162 Switch=T
New SwtControl.A536BH__2692839 SwitchedObj=LINE.A536BH__2692839 SwitchedTerm=2 Action=Closed Lock=no
New Line.D105K__2700907 Bus1=27136661 Bus2=25734599 Switch=T
New SwtControl.D105K__2700907 SwitchedObj=LINE.D105K__2700907 SwitchedTerm=2 Action=Closed Lock=no
New Line.G2401__2692854 Bus1=26999177 Bus2=1140163 Switch=T
New SwtControl.G2401__2692854 SwitchedObj=LINE.G2401__2692854 SwitchedTerm=2 Action=Open Lock=no
New Line.G2401__2692855 Bus1=26999178 Bus2=1140163 Switch=T
New SwtControl.G2401__2692855 SwitchedObj=LINE.G2401__2692855 SwitchedTerm=2 Action=Closed Lock=no
New Line.10DQ79__2676996 Bus1=26331048 Bus2=26331050 Switch=T
New SwtControl.10DQ79__2676996 SwitchedObj=LINE.10DQ79__2676996 SwitchedTerm=2 Action=Closed Lock=no
New Line.8DT93__2693187 Bus1=25734536 Bus2=26999510 Switch=T
New SwtControl.8DT93__2693187 SwitchedObj=LINE.8DT93__2693187 SwitchedTerm=2 Action=Closed Lock=no
New Line.8DT94__2693185 Bus1=26999508 Bus2=25734537 Switch=T
New SwtControl.8DT94__2693185 SwitchedObj=LINE.8DT94__2693185 SwitchedTerm=2 Action=Closed Lock=no
New Line.9AM81__2693547 Bus1=25631620 Bus2=26999870 Switch=T
New SwtControl.9AM81__2693547 SwitchedObj=LINE.9AM81__2693547 SwitchedTerm=2 Action=Closed Lock=no
New Line.G2400__2692852 Bus1=26999175 Bus2=1140165 Switch=T
New SwtControl.G2400__2692852 SwitchedObj=LINE.G2400__2692852 SwitchedTerm=2 Action=Closed Lock=no
New Line.7NX16__2692944 Bus1=26999267 Bus2=25734564 Switch=T
New SwtControl.7NX16__2692944 SwitchedObj=LINE.7NX16__2692944 SwitchedTerm=2 Action=Closed Lock=no
New Line.9AM80__2693545 Bus1=25631619 Bus2=26999868 Switch=T
New SwtControl.9AM80__2693545 SwitchedObj=LINE.9AM80__2693545 SwitchedTerm=2 Action=Open Lock=no
New Line.9AM81__2693546 Bus1=26999869 Bus2=25631620 Switch=T
New SwtControl.9AM81__2693546 SwitchedObj=LINE.9AM81__2693546 SwitchedTerm=2 Action=Closed Lock=no
New Line.G2400__2692853 Bus1=1140165 Bus2=26999176 Switch=T
New SwtControl.G2400__2692853 SwitchedObj=LINE.G2400__2692853 SwitchedTerm=2 Action=Closed Lock=no
New Line.7NX16__2692945 Bus1=25734564 Bus2=26999268 Switch=T
New SwtControl.7NX16__2692945 SwitchedObj=LINE.7NX16__2692945 SwitchedTerm=2 Action=Closed Lock=no
New Line.9AM80__2693544 Bus1=26999867 Bus2=25631619 Switch=T
New SwtControl.9AM80__2693544 SwitchedObj=LINE.9AM80__2693544 SwitchedTerm=2 Action=Closed Lock=no
New Line.8DT94__2693186 Bus1=25734537 Bus2=26999509 Switch=T
New SwtControl.8DT94__2693186 SwitchedObj=LINE.8DT94__2693186 SwitchedTerm=2 Action=Closed Lock=no
New Line.8DT95__2693184 Bus1=25734538 Bus2=26999507 Switch=T
New SwtControl.8DT95__2693184 SwitchedObj=LINE.8DT95__2693184 SwitchedTerm=2 Action=Closed Lock=no
New Line.106803__2701093 Bus1=27136847 Bus2=25836872 Switch=T
New SwtControl.106803__2701093 SwitchedObj=LINE.106803__2701093 SwitchedTerm=2 Action=Closed Lock=no
New Line.D105K__2700908 Bus1=25734599 Bus2=27136662 Switch=T
New SwtControl.D105K__2700908 SwitchedObj=LINE.D105K__2700908 SwitchedTerm=2 Action=Open Lock=no
New Line.ABE44K__2693065 Bus1=1105216 Bus2=26999388 Switch=T
New SwtControl.ABE44K__2693065 SwitchedObj=LINE.ABE44K__2693065 SwitchedTerm=2 Action=Closed Lock=no
New Line.G252K__2700925 Bus1=25734639 Bus2=27136679 Switch=T
New SwtControl.G252K__2700925 SwitchedObj=LINE.G252K__2700925 SwitchedTerm=2 Action=Closed Lock=no
New Line.U606BH__2692823 Bus1=1139989 Bus2=26999146 Switch=T
New SwtControl.U606BH__2692823 SwitchedObj=LINE.U606BH__2692823 SwitchedTerm=2 Action=Closed Lock=no
New Line.8DT93__2693189 Bus1=25734536 Bus2=26999512 Switch=T
New SwtControl.8DT93__2693189 SwitchedObj=LINE.8DT93__2693189 SwitchedTerm=2 Action=Closed Lock=no
New Line.8DT95__2693183 Bus1=26999506 Bus2=25734538 Switch=T
New SwtControl.8DT95__2693183 SwitchedObj=LINE.8DT95__2693183 SwitchedTerm=2 Action=Closed Lock=no
New Line.ABE44K__2693064 Bus1=26999387 Bus2=1105216 Switch=T
New SwtControl.ABE44K__2693064 SwitchedObj=LINE.ABE44K__2693064 SwitchedTerm=2 Action=Closed Lock=no
New Line.G252K__2700926 Bus1=27136680 Bus2=25734639 Switch=T
New SwtControl.G252K__2700926 SwitchedObj=LINE.G252K__2700926 SwitchedTerm=2 Action=Closed Lock=no
New Line.8DT93__2693188 Bus1=26999511 Bus2=25734536 Switch=T
New SwtControl.8DT93__2693188 SwitchedObj=LINE.8DT93__2693188 SwitchedTerm=2 Action=Closed Lock=no
New Line.C0H28__2692908 Bus1=1105435 Bus2=26999231 Switch=T
New SwtControl.C0H28__2692908 SwitchedObj=LINE.C0H28__2692908 SwitchedTerm=2 Action=Closed Lock=no
New Line.U604BH__2692837 Bus1=26999160 Bus2=1139985 Switch=T
New SwtControl.U604BH__2692837 SwitchedObj=LINE.U604BH__2692837 SwitchedTerm=2 Action=Closed Lock=no
New Line.8DT96__2693182 Bus1=26999505 Bus2=25859415 Switch=T
New SwtControl.8DT96__2693182 SwitchedObj=LINE.8DT96__2693182 SwitchedTerm=2 Action=Closed Lock=no
New Line.U604BH__2692836 Bus1=1139985 Bus2=26999159 Switch=T
New SwtControl.U604BH__2692836 SwitchedObj=LINE.U604BH__2692836 SwitchedTerm=2 Action=Closed Lock=no
New Line.106802__2701088 Bus1=25836860 Bus2=27136842 Switch=T
New SwtControl.106802__2701088 SwitchedObj=LINE.106802__2701088 SwitchedTerm=2 Action=Closed Lock=no
New Line.U606BH__2692824 Bus1=26999147 Bus2=1139989 Switch=T
New SwtControl.U606BH__2692824 SwitchedObj=LINE.U606BH__2692824 SwitchedTerm=2 Action=Closed Lock=no
New Line.106802__2701089 Bus1=27136843 Bus2=25836860 Switch=T
New SwtControl.106802__2701089 SwitchedObj=LINE.106802__2701089 SwitchedTerm=2 Action=Closed Lock=no
New Line.9WF46__2701038 Bus1=27136792 Bus2=25876077 Switch=T
New SwtControl.9WF46__2701038 SwitchedObj=LINE.9WF46__2701038 SwitchedTerm=2 Action=Closed Lock=no
New Line.9WF46__2701039 Bus1=25876077 Bus2=27136793 Switch=T
New SwtControl.9WF46__2701039 SwitchedObj=LINE.9WF46__2701039 SwitchedTerm=2 Action=Closed Lock=no
New Line.14L471__2700848 Bus1=26887566 Bus2=27136602 Switch=T
New SwtControl.14L471__2700848 SwitchedObj=LINE.14L471__2700848 SwitchedTerm=2 Action=Closed Lock=no
New Line.15TN73__103913534 Bus1=103265085 Bus2=103265155 Switch=T
New SwtControl.15TN73__103913534 SwitchedObj=LINE.15TN73__103913534 SwitchedTerm=2 Action=Closed Lock=no
New Line.14L467__2700824 Bus1=26887562 Bus2=103125252 Switch=T
New SwtControl.14L467__2700824 SwitchedObj=LINE.14L467__2700824 SwitchedTerm=2 Action=Closed Lock=no
New Line.15TN73__103913535 Bus1=103265158 Bus2=103265085 Switch=T
New SwtControl.15TN73__103913535 SwitchedObj=LINE.15TN73__103913535 SwitchedTerm=2 Action=Closed Lock=no
New Line.C0H28__2692907 Bus1=26999230 Bus2=1105435 Switch=T
New SwtControl.C0H28__2692907 SwitchedObj=LINE.C0H28__2692907 SwitchedTerm=2 Action=Closed Lock=no
New Line.C1F95__2700900 Bus1=25734580 Bus2=27136654 Switch=T
New SwtControl.C1F95__2700900 SwitchedObj=LINE.C1F95__2700900 SwitchedTerm=2 Action=Closed Lock=no
New Line.G258K__2700938 Bus1=1105332 Bus2=27136692 Switch=T
New SwtControl.G258K__2700938 SwitchedObj=LINE.G258K__2700938 SwitchedTerm=2 Action=Closed Lock=no
New Line.G258K__2700939 Bus1=27136693 Bus2=1105332 Switch=T
New SwtControl.G258K__2700939 SwitchedObj=LINE.G258K__2700939 SwitchedTerm=2 Action=Closed Lock=no
New Line.18LL87__105931319 Bus1=103649895 Bus2=103649896 Switch=T
New SwtControl.18LL87__105931319 SwitchedObj=LINE.18LL87__105931319 SwitchedTerm=2 Action=Closed Lock=no
New Line.14L467__2700823 Bus1=27136577 Bus2=26887562 Switch=T
New SwtControl.14L467__2700823 SwitchedObj=LINE.14L467__2700823 SwitchedTerm=2 Action=Closed Lock=no
New Line.D864K__2700881 Bus1=27136635 Bus2=1105452 Switch=T
New SwtControl.D864K__2700881 SwitchedObj=LINE.D864K__2700881 SwitchedTerm=2 Action=Closed Lock=no
New Line.14L470__2700830 Bus1=26887565 Bus2=27136584 Switch=T
New SwtControl.14L470__2700830 SwitchedObj=LINE.14L470__2700830 SwitchedTerm=2 Action=Closed Lock=no
New Line.D864K__2700882 Bus1=1105452 Bus2=27136636 Switch=T
New SwtControl.D864K__2700882 SwitchedObj=LINE.D864K__2700882 SwitchedTerm=2 Action=Closed Lock=no
New Line.14L463__2700861 Bus1=103400446 Bus2=103400443 Switch=T
New SwtControl.14L463__2700861 SwitchedObj=LINE.14L463__2700861 SwitchedTerm=2 Action=Closed Lock=no
New Line.132414__2693116 Bus1=26999439 Bus2=26555830 Switch=T
New SwtControl.132414__2693116 SwitchedObj=LINE.132414__2693116 SwitchedTerm=2 Action=Closed Lock=no
New Line.132414__2693117 Bus1=26555830 Bus2=26999440 Switch=T
New SwtControl.132414__2693117 SwitchedObj=LINE.132414__2693117 SwitchedTerm=2 Action=Closed Lock=no
New Line.132416__2693138 Bus1=26999461 Bus2=26555820 Switch=T
New SwtControl.132416__2693138 SwitchedObj=LINE.132416__2693138 SwitchedTerm=2 Action=Closed Lock=no
New Line.7NW93__2692941 Bus1=26999264 Bus2=25734561 Switch=T
New SwtControl.7NW93__2692941 SwitchedObj=LINE.7NW93__2692941 SwitchedTerm=2 Action=Closed Lock=no
New Line.7NW93__2692940 Bus1=25734561 Bus2=26999263 Switch=T
New SwtControl.7NW93__2692940 SwitchedObj=LINE.7NW93__2692940 SwitchedTerm=2 Action=Closed Lock=no
New Line.7TX21__2701177 Bus1=25360251 Bus2=27136931 Switch=T
New SwtControl.7TX21__2701177 SwitchedObj=LINE.7TX21__2701177 SwitchedTerm=2 Action=Closed Lock=no
New Line.D115K__2701027 Bus1=25734587 Bus2=27136781 Switch=T
New SwtControl.D115K__2701027 SwitchedObj=LINE.D115K__2701027 SwitchedTerm=2 Action=Closed Lock=no
New Line.D115K__2701026 Bus1=27136780 Bus2=25734587 Switch=T
New SwtControl.D115K__2701026 SwitchedObj=LINE.D115K__2701026 SwitchedTerm=2 Action=Closed Lock=no
New Line.7TX21__2701179 Bus1=27136933 Bus2=25360251 Switch=T
New SwtControl.7TX21__2701179 SwitchedObj=LINE.7TX21__2701179 SwitchedTerm=2 Action=Closed Lock=no
New Line.U588BH__2693009 Bus1=26999332 Bus2=1140108 Switch=T
New SwtControl.U588BH__2693009 SwitchedObj=LINE.U588BH__2693009 SwitchedTerm=2 Action=Closed Lock=no
New Line.7TX21__2701178 Bus1=25360251 Bus2=27136932 Switch=T
New SwtControl.7TX21__2701178 SwitchedObj=LINE.7TX21__2701178 SwitchedTerm=2 Action=Open Lock=no
New Line.84Q25__2693034 Bus1=25734525 Bus2=26999357 Switch=T
New SwtControl.84Q25__2693034 SwitchedObj=LINE.84Q25__2693034 SwitchedTerm=2 Action=Closed Lock=no
New Line.84Q26__2693031 Bus1=25734528 Bus2=26999354 Switch=T
New SwtControl.84Q26__2693031 SwitchedObj=LINE.84Q26__2693031 SwitchedTerm=2 Action=Closed Lock=no
New Line.84Q25__2693033 Bus1=25734525 Bus2=26999356 Switch=T
New SwtControl.84Q25__2693033 SwitchedObj=LINE.84Q25__2693033 SwitchedTerm=2 Action=Closed Lock=no
New Line.84Q26__2693030 Bus1=25734528 Bus2=26999353 Switch=T
New SwtControl.84Q26__2693030 SwitchedObj=LINE.84Q26__2693030 SwitchedTerm=2 Action=Closed Lock=no
New Line.84Q25__2693032 Bus1=26999355 Bus2=25734525 Switch=T
New SwtControl.84Q25__2693032 SwitchedObj=LINE.84Q25__2693032 SwitchedTerm=2 Action=Closed Lock=no
New Line.D111K__2700920 Bus1=25734605 Bus2=27136674 Switch=T
New SwtControl.D111K__2700920 SwitchedObj=LINE.D111K__2700920 SwitchedTerm=2 Action=Closed Lock=no
New Line.A549BH__2692841 Bus1=1140071 Bus2=26999164 Switch=T
New SwtControl.A549BH__2692841 SwitchedObj=LINE.A549BH__2692841 SwitchedTerm=2 Action=Closed Lock=no
New Line.A541BH__2692845 Bus1=26999168 Bus2=1139951 Switch=T
New SwtControl.A541BH__2692845 SwitchedObj=LINE.A541BH__2692845 SwitchedTerm=2 Action=Closed Lock=no
New Line.A549BH__2692840 Bus1=26999163 Bus2=1140071 Switch=T
New SwtControl.A549BH__2692840 SwitchedObj=LINE.A549BH__2692840 SwitchedTerm=2 Action=Closed Lock=no
New Line.A541BH__2692844 Bus1=1139951 Bus2=26999167 Switch=T
New SwtControl.A541BH__2692844 SwitchedObj=LINE.A541BH__2692844 SwitchedTerm=2 Action=Closed Lock=no
New Line.184Q58__104712820 Bus1=103543473 Bus2=103543472 Switch=T
New SwtControl.184Q58__104712820 SwitchedObj=LINE.184Q58__104712820 SwitchedTerm=2 Action=Closed Lock=no
New Line.84Q24__2693039 Bus1=25734529 Bus2=26999362 Switch=T
New SwtControl.84Q24__2693039 SwitchedObj=LINE.84Q24__2693039 SwitchedTerm=2 Action=Closed Lock=no
New Line.8DW53__103222932 Bus1=103079707 Bus2=103079713 Switch=T
New SwtControl.8DW53__103222932 SwitchedObj=LINE.8DW53__103222932 SwitchedTerm=2 Action=Closed Lock=no
New Line.14LH95__2701357 Bus1=27137111 Bus2=26896054 Switch=T
New SwtControl.14LH95__2701357 SwitchedObj=LINE.14LH95__2701357 SwitchedTerm=2 Action=Closed Lock=no
New Line.14LH95__2701356 Bus1=27137110 Bus2=26896054 Switch=T
New SwtControl.14LH95__2701356 SwitchedObj=LINE.14LH95__2701356 SwitchedTerm=2 Action=Open Lock=no
New Line.12128__2700912 Bus1=25734601 Bus2=27136666 Switch=T
New SwtControl.12128__2700912 SwitchedObj=LINE.12128__2700912 SwitchedTerm=2 Action=Closed Lock=no
New Line.2YC86__2700879 Bus1=27136633 Bus2=1105450 Switch=T
New SwtControl.2YC86__2700879 SwitchedObj=LINE.2YC86__2700879 SwitchedTerm=2 Action=Closed Lock=no
New Line.18GC35__105326044 Bus1=103626611 Bus2=103626610 Switch=T
New SwtControl.18GC35__105326044 SwitchedObj=LINE.18GC35__105326044 SwitchedTerm=2 Action=Open Lock=no
New Line.12128__2700911 Bus1=27136665 Bus2=25734601 Switch=T
New SwtControl.12128__2700911 SwitchedObj=LINE.12128__2700911 SwitchedTerm=2 Action=Closed Lock=no
New Line.14LH93__2701370 Bus1=26907383 Bus2=27137124 Switch=T
New SwtControl.14LH93__2701370 SwitchedObj=LINE.14LH93__2701370 SwitchedTerm=2 Action=Closed Lock=no
New Line.18GC35__105326043 Bus1=103626609 Bus2=103626610 Switch=T
New SwtControl.18GC35__105326043 SwitchedObj=LINE.18GC35__105326043 SwitchedTerm=2 Action=Closed Lock=no
New Line.13PX78__2693880 Bus1=27000203 Bus2=26709824 Switch=T
New SwtControl.13PX78__2693880 SwitchedObj=LINE.13PX78__2693880 SwitchedTerm=2 Action=Closed Lock=no
New Line.15QR59__103849343 Bus1=103249223 Bus2=103249189 Switch=T
New SwtControl.15QR59__103849343 SwitchedObj=LINE.15QR59__103849343 SwitchedTerm=2 Action=Closed Lock=no
New Line.13PX77__2693876 Bus1=27000199 Bus2=26709815 Switch=T
New SwtControl.13PX77__2693876 SwitchedObj=LINE.13PX77__2693876 SwitchedTerm=2 Action=Closed Lock=no
New Line.13PX77__2693875 Bus1=26709815 Bus2=27000198 Switch=T
New SwtControl.13PX77__2693875 SwitchedObj=LINE.13PX77__2693875 SwitchedTerm=2 Action=Closed Lock=no
New Line.6TE37__2701140 Bus1=27136894 Bus2=25359988 Switch=T
New SwtControl.6TE37__2701140 SwitchedObj=LINE.6TE37__2701140 SwitchedTerm=2 Action=Closed Lock=no
New Line.CBN13__2700957 Bus1=1105733 Bus2=27136711 Switch=T
New SwtControl.CBN13__2700957 SwitchedObj=LINE.CBN13__2700957 SwitchedTerm=2 Action=Closed Lock=no
New Line.14L810__103098773 Bus1=103048711 Bus2=T4795B23_10000004 Switch=T
New SwtControl.14L810__103098773 SwitchedObj=LINE.14L810__103098773 SwitchedTerm=2 Action=Closed Lock=no
New Line.8EK62__2693049 Bus1=26999372 Bus2=25586104 Switch=T
New SwtControl.8EK62__2693049 SwitchedObj=LINE.8EK62__2693049 SwitchedTerm=2 Action=Closed Lock=no
New Line.CBN13__2700956 Bus1=27136710 Bus2=1105733 Switch=T
New SwtControl.CBN13__2700956 SwitchedObj=LINE.CBN13__2700956 SwitchedTerm=2 Action=Closed Lock=no
New Line.15QR59__103849345 Bus1=103249189 Bus2=103249218 Switch=T
New SwtControl.15QR59__103849345 SwitchedObj=LINE.15QR59__103849345 SwitchedTerm=2 Action=Closed Lock=no
New Line.6TE35__2701141 Bus1=27136895 Bus2=25359972 Switch=T
New SwtControl.6TE35__2701141 SwitchedObj=LINE.6TE35__2701141 SwitchedTerm=2 Action=Closed Lock=no
New Line.CBN16__2700953 Bus1=1105719 Bus2=27136707 Switch=T
New SwtControl.CBN16__2700953 SwitchedObj=LINE.CBN16__2700953 SwitchedTerm=2 Action=Open Lock=no
New Line.CBN16__2700952 Bus1=27136706 Bus2=1105719 Switch=T
New SwtControl.CBN16__2700952 SwitchedObj=LINE.CBN16__2700952 SwitchedTerm=2 Action=Closed Lock=no
New Line.6TE35__2701142 Bus1=25359972 Bus2=27136896 Switch=T
New SwtControl.6TE35__2701142 SwitchedObj=LINE.6TE35__2701142 SwitchedTerm=2 Action=Closed Lock=no
New Line.8DR38__104508465 Bus1=103462488 Bus2=103462493 Switch=T
New SwtControl.8DR38__104508465 SwitchedObj=LINE.8DR38__104508465 SwitchedTerm=2 Action=Closed Lock=no
New Line.12127__2700914 Bus1=25734602 Bus2=27136668 Switch=T
New SwtControl.12127__2700914 SwitchedObj=LINE.12127__2700914 SwitchedTerm=2 Action=Closed Lock=no
New Line.12126__2700916 Bus1=25734603 Bus2=27136670 Switch=T
New SwtControl.12126__2700916 SwitchedObj=LINE.12126__2700916 SwitchedTerm=2 Action=Closed Lock=no
New Line.106797__2701119 Bus1=27136873 Bus2=25836866 Switch=T
New SwtControl.106797__2701119 SwitchedObj=LINE.106797__2701119 SwitchedTerm=2 Action=Closed Lock=no
New Line.12127__2700913 Bus1=27136667 Bus2=25734602 Switch=T
New SwtControl.12127__2700913 SwitchedObj=LINE.12127__2700913 SwitchedTerm=2 Action=Closed Lock=no
New Line.158E26__103192138 Bus1=103072060 Bus2=103072055 Switch=T
New SwtControl.158E26__103192138 SwitchedObj=LINE.158E26__103192138 SwitchedTerm=2 Action=Closed Lock=no
New Line.CBN14__2700955 Bus1=1105735 Bus2=27136709 Switch=T
New SwtControl.CBN14__2700955 SwitchedObj=LINE.CBN14__2700955 SwitchedTerm=2 Action=Closed Lock=no
New Line.12126__2700915 Bus1=27136669 Bus2=25734603 Switch=T
New SwtControl.12126__2700915 SwitchedObj=LINE.12126__2700915 SwitchedTerm=2 Action=Closed Lock=no
New Line.8DT82__2693391 Bus1=26999714 Bus2=25734570 Switch=T
New SwtControl.8DT82__2693391 SwitchedObj=LINE.8DT82__2693391 SwitchedTerm=2 Action=Closed Lock=no
New Line.CBN14__2700954 Bus1=27136708 Bus2=1105735 Switch=T
New SwtControl.CBN14__2700954 SwitchedObj=LINE.CBN14__2700954 SwitchedTerm=2 Action=Closed Lock=no
New Line.12125__2700917 Bus1=27136671 Bus2=25734604 Switch=T
New SwtControl.12125__2700917 SwitchedObj=LINE.12125__2700917 SwitchedTerm=2 Action=Closed Lock=no
New Line.8DT82__2693390 Bus1=25734570 Bus2=26999713 Switch=T
New SwtControl.8DT82__2693390 SwitchedObj=LINE.8DT82__2693390 SwitchedTerm=2 Action=Closed Lock=no
New Line.132356__2701086 Bus1=27136840 Bus2=26555762 Switch=T
New SwtControl.132356__2701086 SwitchedObj=LINE.132356__2701086 SwitchedTerm=2 Action=Closed Lock=no
New Line.132356__2701087 Bus1=27136841 Bus2=26555762 Switch=T
New SwtControl.132356__2701087 SwitchedObj=LINE.132356__2701087 SwitchedTerm=2 Action=Open Lock=no
New Line.18LL90__105931322 Bus1=103649889 Bus2=103649888 Switch=T
New SwtControl.18LL90__105931322 SwitchedObj=LINE.18LL90__105931322 SwitchedTerm=2 Action=Closed Lock=no
New Line.18LL90__105931321 Bus1=103649888 Bus2=103649887 Switch=T
New SwtControl.18LL90__105931321 SwitchedObj=LINE.18LL90__105931321 SwitchedTerm=2 Action=Closed Lock=no
New Line.8DR41__2693056 Bus1=26999379 Bus2=25426804 Switch=T
New SwtControl.8DR41__2693056 SwitchedObj=LINE.8DR41__2693056 SwitchedTerm=2 Action=Closed Lock=no
New Line.14FX04__2700770 Bus1=26859628 Bus2=27136524 Switch=T
New SwtControl.14FX04__2700770 SwitchedObj=LINE.14FX04__2700770 SwitchedTerm=2 Action=Closed Lock=no
New Line.8DR41__2693057 Bus1=25426804 Bus2=26999380 Switch=T
New SwtControl.8DR41__2693057 SwitchedObj=LINE.8DR41__2693057 SwitchedTerm=2 Action=Closed Lock=no
New Line.15QR56__103849303 Bus1=103249181 Bus2=103249208 Switch=T
New SwtControl.15QR56__103849303 SwitchedObj=LINE.15QR56__103849303 SwitchedTerm=2 Action=Closed Lock=no
New Line.12125__2700918 Bus1=25734604 Bus2=27136672 Switch=T
New SwtControl.12125__2700918 SwitchedObj=LINE.12125__2700918 SwitchedTerm=2 Action=Closed Lock=no
New Line.14L809__103098742 Bus1=103041486 Bus2=103041479 Switch=T
New SwtControl.14L809__103098742 SwitchedObj=LINE.14L809__103098742 SwitchedTerm=2 Action=Closed Lock=no
New Line.14FX07__2700743 Bus1=26859623 Bus2=27136497 Switch=T
New SwtControl.14FX07__2700743 SwitchedObj=LINE.14FX07__2700743 SwitchedTerm=2 Action=Closed Lock=no
New Line.14FX07__2700744 Bus1=27136498 Bus2=26859623 Switch=T
New SwtControl.14FX07__2700744 SwitchedObj=LINE.14FX07__2700744 SwitchedTerm=2 Action=Closed Lock=no
New Line.13PX95__2693853 Bus1=27000176 Bus2=26709803 Switch=T
New SwtControl.13PX95__2693853 SwitchedObj=LINE.13PX95__2693853 SwitchedTerm=2 Action=Closed Lock=no
New Line.15QR56__103849304 Bus1=103249210 Bus2=103249181 Switch=T
New SwtControl.15QR56__103849304 SwitchedObj=LINE.15QR56__103849304 SwitchedTerm=2 Action=Closed Lock=no
New Line.8DT86__2692950 Bus1=103079727 Bus2=25734566 Switch=T
New SwtControl.8DT86__2692950 SwitchedObj=LINE.8DT86__2692950 SwitchedTerm=2 Action=Closed Lock=no
New Line.11E484__2701111 Bus1=26128192 Bus2=27136865 Switch=T
New SwtControl.11E484__2701111 SwitchedObj=LINE.11E484__2701111 SwitchedTerm=2 Action=Closed Lock=no
New Line.13PX89__2693859 Bus1=26709745 Bus2=27000182 Switch=T
New SwtControl.13PX89__2693859 SwitchedObj=LINE.13PX89__2693859 SwitchedTerm=2 Action=Closed Lock=no
New Line.15QR58__103849329 Bus1=103249217 Bus2=103249185 Switch=T
New SwtControl.15QR58__103849329 SwitchedObj=LINE.15QR58__103849329 SwitchedTerm=2 Action=Closed Lock=no
New Line.18KP64__105820258 Bus1=103645578 Bus2=103645577 Switch=T
New SwtControl.18KP64__105820258 SwitchedObj=LINE.18KP64__105820258 SwitchedTerm=2 Action=Closed Lock=no
New Line.8DT85__2692951 Bus1=25734567 Bus2=26999274 Switch=T
New SwtControl.8DT85__2692951 SwitchedObj=LINE.8DT85__2692951 SwitchedTerm=2 Action=Closed Lock=no
New Line.126696__2693605 Bus1=26356911 Bus2=26999928 Switch=T
New SwtControl.126696__2693605 SwitchedObj=LINE.126696__2693605 SwitchedTerm=2 Action=Closed Lock=no
New Line.18KP64__105820259 Bus1=103645579 Bus2=103645578 Switch=T
New SwtControl.18KP64__105820259 SwitchedObj=LINE.18KP64__105820259 SwitchedTerm=2 Action=Closed Lock=no
New Line.8DT85__2692952 Bus1=26999275 Bus2=25734567 Switch=T
New SwtControl.8DT85__2692952 SwitchedObj=LINE.8DT85__2692952 SwitchedTerm=2 Action=Closed Lock=no
New Line.11E484__2701112 Bus1=27136866 Bus2=26128192 Switch=T
New SwtControl.11E484__2701112 SwitchedObj=LINE.11E484__2701112 SwitchedTerm=2 Action=Closed Lock=no
New Line.126696__2693606 Bus1=26999929 Bus2=26356911 Switch=T
New SwtControl.126696__2693606 SwitchedObj=LINE.126696__2693606 SwitchedTerm=2 Action=Closed Lock=no
New Line.13PX80__2693882 Bus1=27000205 Bus2=26709829 Switch=T
New SwtControl.13PX80__2693882 SwitchedObj=LINE.13PX80__2693882 SwitchedTerm=2 Action=Closed Lock=no
New Line.13PX95__2693854 Bus1=26709803 Bus2=27000177 Switch=T
New SwtControl.13PX95__2693854 SwitchedObj=LINE.13PX95__2693854 SwitchedTerm=2 Action=Closed Lock=no
New Line.13PX96__2693862 Bus1=27000185 Bus2=26709751 Switch=T
New SwtControl.13PX96__2693862 SwitchedObj=LINE.13PX96__2693862 SwitchedTerm=2 Action=Closed Lock=no
New Line.13PX80__2693881 Bus1=27000204 Bus2=26709829 Switch=T
...